*INCLUDE, INPUT=Solid/all.msh
*INCLUDE, INPUT=Solid/bottom.nam
*INCLUDE, INPUT=Solid/interface.nam
*INCLUDE, INPUT=Solid/interface.sur

*BOUNDARY
Nbottom,11,11,310

*MATERIAL,NAME=STEEL
*DENSITY
1
*CONDUCTIVITY
100
*SPECIFIC HEAT
100
*SOLID SECTION,ELSET=Eall,MATERIAL=STEEL

*INITIAL CONDITIONS,TYPE=TEMPERATURE
Nall,310

*STEP, INC=1000000
*HEAT TRANSFER, DIRECT
0.01,50

*DFLUX
*INCLUDE, INPUT=Solid/front.dfl
*INCLUDE, INPUT=Solid/back.dfl
*INCLUDE, INPUT=Solid/left.dfl
*INCLUDE, INPUT=Solid/right.dfl

*FILM
*INCLUDE, INPUT=Solid/interface.flm

*NODE PRINT,NSET=Ninterface
NT
*NODE FILE
NT
*NODE PRINT, NSET=Ninterface
HFL

*FACE PRINT, SURFACE=Sinterface
FLUX

*END STEP
